<?xml version="1.0" encoding="UTF-8"?>

<!-- generated on Thu Aug 30 12:35:22 2018 by Eclipse SUMO netgenerate Version 9533f2b53c
<configuration xmlns:xsi="http://www.w3.org/2001/XMLSchema-instance" xsi:noNamespaceSchemaLocation="http://sumo.dlr.de/xsd/netgenerateConfiguration.xsd">

    <grid_network>
        <grid value="true"/>
        <grid.diagonalDirection value="left"/>
    </grid_network>

</configuration>
-->

<net version="0.27" junctionCornerDetail="5" xmlns:xsi="http://www.w3.org/2001/XMLSchema-instance" xsi:noNamespaceSchemaLocation="http://sumo.dlr.de/xsd/net_file.xsd">

    <location netOffset="0.00,0.00" convBoundary="0.00,0.00,400.00,400.00" origBoundary="0.00,0.00,400.00,400.00" projParameter="!"/>

    <edge id=":A0_0" function="internal">
        <lane id=":A0_0_0" index="0" speed="13.89" length="7.74" shape="-1.60,3.20 -1.30,1.10 -0.40,-0.40 1.10,-1.30 3.20,-1.60"/>
    </edge>
    <edge id=":A0_1" function="internal">
        <lane id=":A0_1_0" index="0" speed="13.89" length="2.66" shape="-1.60,3.20 -0.80,2.00 0.00,1.60 0.29,1.74"/>
    </edge>
    <edge id=":A0_4" function="internal">
        <lane id=":A0_4_0" index="0" speed="13.89" length="2.01" shape="0.29,1.74 0.80,2.00 1.60,3.20"/>
    </edge>
    <edge id=":A0_2" function="internal">
        <lane id=":A0_2_0" index="0" speed="13.89" length="2.58" shape="3.20,1.60 2.50,1.70 2.00,2.00 1.70,2.50 1.60,3.20"/>
    </edge>
    <edge id=":A0_3" function="internal">
        <lane id=":A0_3_0" index="0" speed="13.89" length="2.08" shape="3.20,1.60 2.00,0.80 1.71,0.23"/>
    </edge>
    <edge id=":A0_5" function="internal">
        <lane id=":A0_5_0" index="0" speed="13.89" length="2.59" shape="1.71,0.23 1.60,0.00 2.00,-0.80 3.20,-1.60"/>
    </edge>
    <edge id=":A1_0" function="internal">
        <lane id=":A1_0_0" index="0" speed="13.89" length="18.93" shape="-1.60,107.20 -1.60,88.27"/>
    </edge>
    <edge id=":A1_1" function="internal">
        <lane id=":A1_1_0" index="0" speed="13.89" length="6.85" shape="-1.60,107.20 -1.05,103.21 -0.00,100.59"/>
    </edge>
    <edge id=":A1_2" function="internal">
        <lane id=":A1_2_0" index="0" speed="13.89" length="5.08" shape="-1.60,107.20 -0.77,103.35 -0.00,102.51"/>
    </edge>
    <edge id=":A1_3" function="internal">
        <lane id=":A1_3_0" index="0" speed="13.89" length="2.34" shape="-1.60,107.20 -0.80,106.00 0.00,105.60"/>
    </edge>
    <edge id=":A1_16" function="internal">
        <lane id=":A1_16_0" index="0" speed="13.89" length="12.39" shape="-0.00,100.59 0.59,99.11 3.33,94.90 7.16,90.58"/>
    </edge>
    <edge id=":A1_17" function="internal">
        <lane id=":A1_17_0" index="0" speed="13.89" length="12.91" shape="-0.00,102.51 1.73,100.60 5.90,98.95 11.73,98.40"/>
    </edge>
    <edge id=":A1_18" function="internal">
        <lane id=":A1_18_0" index="0" speed="13.89" length="2.34" shape="0.00,105.60 0.80,106.00 1.60,107.20"/>
    </edge>
    <edge id=":A1_4" function="internal">
        <lane id=":A1_4_0" index="0" speed="13.89" length="12.89" shape="11.73,101.60 7.30,101.95 4.13,103.00 2.23,104.75 1.60,107.20"/>
    </edge>
    <edge id=":A1_5" function="internal">
        <lane id=":A1_5_0" index="0" speed="13.89" length="21.49" shape="11.73,101.60 5.90,100.77 1.73,98.27 -0.77,94.10 -1.60,88.27"/>
    </edge>
    <edge id=":A1_6" function="internal">
        <lane id=":A1_6_0" index="0" speed="13.89" length="19.31" shape="11.73,101.60 5.59,100.91 2.79,98.84 3.31,95.40 7.16,90.58"/>
    </edge>
    <edge id=":A1_7" function="internal">
        <lane id=":A1_7_0" index="0" speed="13.89" length="4.67" shape="11.73,101.60 10.53,100.80 10.13,100.00 10.53,99.20 11.73,98.40"/>
    </edge>
    <edge id=":A1_8" function="internal">
        <lane id=":A1_8_0" index="0" speed="13.89" length="9.74" shape="9.42,92.84 7.48,95.27 7.22,97.01 8.63,98.05 11.73,98.40"/>
    </edge>
    <edge id=":A1_9" function="internal">
        <lane id=":A1_9_0" index="0" speed="13.89" length="16.74" shape="9.42,92.84 6.00,96.67 3.56,100.34 2.09,103.85 1.60,107.20"/>
    </edge>
    <edge id=":A1_10" function="internal">
        <lane id=":A1_10_0" index="0" speed="13.89" length="19.31" shape="9.42,92.84 4.60,96.69 1.16,97.21 -0.91,94.41 -1.60,88.27"/>
    </edge>
    <edge id=":A1_11" function="internal">
        <lane id=":A1_11_0" index="0" speed="13.89" length="4.67" shape="9.42,92.84 8.01,93.12 7.16,92.84 6.88,91.99 7.16,90.58"/>
    </edge>
    <edge id=":A1_12" function="internal">
        <lane id=":A1_12_0" index="0" speed="13.89" length="9.74" shape="1.60,88.27 1.95,91.37 2.99,92.78 4.73,92.52 7.16,90.58"/>
    </edge>
    <edge id=":A1_13" function="internal">
        <lane id=":A1_13_0" index="0" speed="13.89" length="16.33" shape="1.60,88.27 2.23,92.70 4.13,95.87 7.30,97.77 11.73,98.40"/>
    </edge>
    <edge id=":A1_14" function="internal">
        <lane id=":A1_14_0" index="0" speed="13.89" length="18.93" shape="1.60,88.27 1.60,107.20"/>
    </edge>
    <edge id=":A1_15" function="internal">
        <lane id=":A1_15_0" index="0" speed="13.89" length="2.34" shape="1.60,88.27 0.80,89.47 0.00,89.87"/>
    </edge>
    <edge id=":A1_19" function="internal">
        <lane id=":A1_19_0" index="0" speed="13.89" length="2.34" shape="0.00,89.87 -0.80,89.47 -1.60,88.27"/>
    </edge>
    <edge id=":A2_0" function="internal">
        <lane id=":A2_0_0" index="0" speed="13.89" length="18.93" shape="-1.60,207.20 -1.60,188.27"/>
    </edge>
    <edge id=":A2_1" function="internal">
        <lane id=":A2_1_0" index="0" speed="13.89" length="6.85" shape="-1.60,207.20 -1.05,203.21 0.00,200.59"/>
    </edge>
    <edge id=":A2_2" function="internal">
        <lane id=":A2_2_0" index="0" speed="13.89" length="5.08" shape="-1.60,207.20 -0.77,203.35 0.00,202.51"/>
    </edge>
    <edge id=":A2_3" function="internal">
        <lane id=":A2_3_0" index="0" speed="13.89" length="2.34" shape="-1.60,207.20 -0.80,206.00 0.00,205.60"/>
    </edge>
    <edge id=":A2_16" function="internal">
        <lane id=":A2_16_0" index="0" speed="13.89" length="12.39" shape="0.00,200.59 0.59,199.11 3.33,194.90 7.16,190.58"/>
    </edge>
    <edge id=":A2_17" function="internal">
        <lane id=":A2_17_0" index="0" speed="13.89" length="12.91" shape="0.00,202.51 1.73,200.60 5.90,198.95 11.73,198.40"/>
    </edge>
    <edge id=":A2_18" function="internal">
        <lane id=":A2_18_0" index="0" speed="13.89" length="2.34" shape="0.00,205.60 0.80,206.00 1.60,207.20"/>
    </edge>
    <edge id=":A2_4" function="internal">
        <lane id=":A2_4_0" index="0" speed="13.89" length="12.89" shape="11.73,201.60 7.30,201.95 4.13,203.00 2.23,204.75 1.60,207.20"/>
    </edge>
    <edge id=":A2_5" function="internal">
        <lane id=":A2_5_0" index="0" speed="13.89" length="21.49" shape="11.73,201.60 5.90,200.77 1.73,198.27 -0.77,194.10 -1.60,188.27"/>
    </edge>
    <edge id=":A2_6" function="internal">
        <lane id=":A2_6_0" index="0" speed="13.89" length="19.31" shape="11.73,201.60 5.59,200.91 2.79,198.84 3.31,195.40 7.16,190.58"/>
    </edge>
    <edge id=":A2_7" function="internal">
        <lane id=":A2_7_0" index="0" speed="13.89" length="4.67" shape="11.73,201.60 10.53,200.80 10.13,200.00 10.53,199.20 11.73,198.40"/>
    </edge>
    <edge id=":A2_8" function="internal">
        <lane id=":A2_8_0" index="0" speed="13.89" length="9.74" shape="9.42,192.84 7.48,195.27 7.22,197.01 8.63,198.05 11.73,198.40"/>
    </edge>
    <edge id=":A2_9" function="internal">
        <lane id=":A2_9_0" index="0" speed="13.89" length="16.74" shape="9.42,192.84 6.00,196.67 3.56,200.34 2.09,203.85 1.60,207.20"/>
    </edge>
    <edge id=":A2_10" function="internal">
        <lane id=":A2_10_0" index="0" speed="13.89" length="19.31" shape="9.42,192.84 4.60,196.69 1.16,197.21 -0.91,194.41 -1.60,188.27"/>
    </edge>
    <edge id=":A2_11" function="internal">
        <lane id=":A2_11_0" index="0" speed="13.89" length="4.67" shape="9.42,192.84 8.01,193.12 7.16,192.84 6.88,191.99 7.16,190.58"/>
    </edge>
    <edge id=":A2_12" function="internal">
        <lane id=":A2_12_0" index="0" speed="13.89" length="9.74" shape="1.60,188.27 1.95,191.37 2.99,192.78 4.73,192.52 7.16,190.58"/>
    </edge>
    <edge id=":A2_13" function="internal">
        <lane id=":A2_13_0" index="0" speed="13.89" length="16.33" shape="1.60,188.27 2.23,192.70 4.13,195.87 7.30,197.77 11.73,198.40"/>
    </edge>
    <edge id=":A2_14" function="internal">
        <lane id=":A2_14_0" index="0" speed="13.89" length="18.93" shape="1.60,188.27 1.60,207.20"/>
    </edge>
    <edge id=":A2_15" function="internal">
        <lane id=":A2_15_0" index="0" speed="13.89" length="2.34" shape="1.60,188.27 0.80,189.47 0.00,189.87"/>
    </edge>
    <edge id=":A2_19" function="internal">
        <lane id=":A2_19_0" index="0" speed="13.89" length="2.34" shape="0.00,189.87 -0.80,189.47 -1.60,188.27"/>
    </edge>
    <edge id=":A3_0" function="internal">
        <lane id=":A3_0_0" index="0" speed="13.89" length="18.93" shape="-1.60,307.20 -1.60,288.27"/>
    </edge>
    <edge id=":A3_1" function="internal">
        <lane id=":A3_1_0" index="0" speed="13.89" length="6.85" shape="-1.60,307.20 -1.05,303.21 0.00,300.59"/>
    </edge>
    <edge id=":A3_2" function="internal">
        <lane id=":A3_2_0" index="0" speed="13.89" length="5.08" shape="-1.60,307.20 -0.77,303.35 0.00,302.51"/>
    </edge>
    <edge id=":A3_3" function="internal">
        <lane id=":A3_3_0" index="0" speed="13.89" length="2.34" shape="-1.60,307.20 -0.80,306.00 0.00,305.60"/>
    </edge>
    <edge id=":A3_16" function="internal">
        <lane id=":A3_16_0" index="0" speed="13.89" length="12.39" shape="0.00,300.59 0.59,299.11 3.33,294.90 7.16,290.58"/>
    </edge>
    <edge id=":A3_17" function="internal">
        <lane id=":A3_17_0" index="0" speed="13.89" length="12.91" shape="0.00,302.51 1.73,300.60 5.90,298.95 11.73,298.40"/>
    </edge>
    <edge id=":A3_18" function="internal">
        <lane id=":A3_18_0" index="0" speed="13.89" length="2.34" shape="0.00,305.60 0.80,306.00 1.60,307.20"/>
    </edge>
    <edge id=":A3_4" function="internal">
        <lane id=":A3_4_0" index="0" speed="13.89" length="12.89" shape="11.73,301.60 7.30,301.95 4.13,303.00 2.23,304.75 1.60,307.20"/>
    </edge>
    <edge id=":A3_5" function="internal">
        <lane id=":A3_5_0" index="0" speed="13.89" length="21.49" shape="11.73,301.60 5.90,300.77 1.73,298.27 -0.77,294.10 -1.60,288.27"/>
    </edge>
    <edge id=":A3_6" function="internal">
        <lane id=":A3_6_0" index="0" speed="13.89" length="19.31" shape="11.73,301.60 5.59,300.91 2.79,298.84 3.31,295.40 7.16,290.58"/>
    </edge>
    <edge id=":A3_7" function="internal">
        <lane id=":A3_7_0" index="0" speed="13.89" length="4.67" shape="11.73,301.60 10.53,300.80 10.13,300.00 10.53,299.20 11.73,298.40"/>
    </edge>
    <edge id=":A3_8" function="internal">
        <lane id=":A3_8_0" index="0" speed="13.89" length="9.74" shape="9.42,292.84 7.48,295.27 7.22,297.01 8.63,298.05 11.73,298.40"/>
    </edge>
    <edge id=":A3_9" function="internal">
        <lane id=":A3_9_0" index="0" speed="13.89" length="16.74" shape="9.42,292.84 6.00,296.67 3.56,300.34 2.09,303.85 1.60,307.20"/>
    </edge>
    <edge id=":A3_10" function="internal">
        <lane id=":A3_10_0" index="0" speed="13.89" length="19.31" shape="9.42,292.84 4.60,296.69 1.16,297.21 -0.91,294.41 -1.60,288.27"/>
    </edge>
    <edge id=":A3_11" function="internal">
        <lane id=":A3_11_0" index="0" speed="13.89" length="4.67" shape="9.42,292.84 8.01,293.12 7.16,292.84 6.88,291.99 7.16,290.58"/>
    </edge>
    <edge id=":A3_12" function="internal">
        <lane id=":A3_12_0" index="0" speed="13.89" length="9.74" shape="1.60,288.27 1.95,291.37 2.99,292.78 4.73,292.52 7.16,290.58"/>
    </edge>
    <edge id=":A3_13" function="internal">
        <lane id=":A3_13_0" index="0" speed="13.89" length="16.33" shape="1.60,288.27 2.23,292.70 4.13,295.87 7.30,297.77 11.73,298.40"/>
    </edge>
    <edge id=":A3_14" function="internal">
        <lane id=":A3_14_0" index="0" speed="13.89" length="18.93" shape="1.60,288.27 1.60,307.20"/>
    </edge>
    <edge id=":A3_15" function="internal">
        <lane id=":A3_15_0" index="0" speed="13.89" length="2.34" shape="1.60,288.27 0.80,289.47 0.00,289.87"/>
    </edge>
    <edge id=":A3_19" function="internal">
        <lane id=":A3_19_0" index="0" speed="13.89" length="2.34" shape="0.00,289.87 -0.80,289.47 -1.60,288.27"/>
    </edge>
    <edge id=":A4_0" function="internal">
        <lane id=":A4_0_0" index="0" speed="13.89" length="21.49" shape="11.73,401.60 5.90,400.77 1.73,398.27 -0.77,394.10 -1.60,388.27"/>
    </edge>
    <edge id=":A4_1" function="internal">
        <lane id=":A4_1_0" index="0" speed="13.89" length="11.43" shape="11.73,401.60 5.59,400.91 2.79,398.84 3.06,397.09"/>
    </edge>
    <edge id=":A4_2" function="internal">
        <lane id=":A4_2_0" index="0" speed="13.89" length="2.56" shape="11.73,401.60 10.53,400.80 10.13,400.00 10.22,399.80"/>
    </edge>
    <edge id=":A4_9" function="internal">
        <lane id=":A4_9_0" index="0" speed="13.89" length="7.88" shape="3.06,397.09 3.31,395.40 7.16,390.58"/>
    </edge>
    <edge id=":A4_10" function="internal">
        <lane id=":A4_10_0" index="0" speed="13.89" length="2.12" shape="10.22,399.80 10.53,399.20 11.73,398.40"/>
    </edge>
    <edge id=":A4_3" function="internal">
        <lane id=":A4_3_0" index="0" speed="13.89" length="9.74" shape="9.42,392.84 7.48,395.27 7.22,397.01 8.63,398.05 11.73,398.40"/>
    </edge>
    <edge id=":A4_4" function="internal">
        <lane id=":A4_4_0" index="0" speed="13.89" length="19.31" shape="9.42,392.84 4.60,396.69 1.16,397.21 -0.91,394.41 -1.60,388.27"/>
    </edge>
    <edge id=":A4_5" function="internal">
        <lane id=":A4_5_0" index="0" speed="13.89" length="4.67" shape="9.42,392.84 8.01,393.12 7.16,392.84 6.88,391.99 7.16,390.58"/>
    </edge>
    <edge id=":A4_6" function="internal">
        <lane id=":A4_6_0" index="0" speed="13.89" length="9.74" shape="1.60,388.27 1.95,391.37 2.99,392.78 4.73,392.52 7.16,390.58"/>
    </edge>
    <edge id=":A4_7" function="internal">
        <lane id=":A4_7_0" index="0" speed="13.89" length="16.33" shape="1.60,388.27 2.23,392.70 4.13,395.87 7.30,397.77 11.73,398.40"/>
    </edge>
    <edge id=":A4_8" function="internal">
        <lane id=":A4_8_0" index="0" speed="13.89" length="2.08" shape="1.60,388.27 0.80,389.47 0.23,389.76"/>
    </edge>
    <edge id=":A4_11" function="internal">
        <lane id=":A4_11_0" index="0" speed="13.89" length="2.59" shape="0.23,389.76 0.00,389.87 -0.80,389.47 -1.60,388.27"/>
    </edge>
    <edge id=":B0_0" function="internal">
        <lane id=":B0_0_0" index="0" speed="13.89" length="9.74" shape="98.40,11.73 98.05,8.63 97.01,7.22 95.27,7.48 92.84,9.42"/>
    </edge>
    <edge id=":B0_1" function="internal">
        <lane id=":B0_1_0" index="0" speed="13.89" length="16.33" shape="98.40,11.73 97.77,7.30 95.87,4.13 92.70,2.23 88.27,1.60"/>
    </edge>
    <edge id=":B0_2" function="internal">
        <lane id=":B0_2_0" index="0" speed="13.89" length="17.99" shape="98.40,11.73 98.95,5.90 100.60,1.73 103.35,-0.77 107.20,-1.60"/>
    </edge>
    <edge id=":B0_3" function="internal">
        <lane id=":B0_3_0" index="0" speed="13.89" length="4.67" shape="98.40,11.73 99.20,10.53 100.00,10.13 100.80,10.53 101.60,11.73"/>
    </edge>
    <edge id=":B0_4" function="internal">
        <lane id=":B0_4_0" index="0" speed="13.89" length="12.89" shape="107.20,1.60 104.75,2.23 103.00,4.13 101.95,7.30 101.60,11.73"/>
    </edge>
    <edge id=":B0_5" function="internal">
        <lane id=":B0_5_0" index="0" speed="13.89" length="16.74" shape="107.20,1.60 103.85,2.09 100.34,3.56 96.67,6.00 92.84,9.42"/>
    </edge>
    <edge id=":B0_6" function="internal">
        <lane id=":B0_6_0" index="0" speed="13.89" length="18.93" shape="107.20,1.60 88.27,1.60"/>
    </edge>
    <edge id=":B0_7" function="internal">
        <lane id=":B0_7_0" index="0" speed="13.89" length="2.34" shape="107.20,1.60 106.00,0.80 105.60,0.00"/>
    </edge>
    <edge id=":B0_16" function="internal">
        <lane id=":B0_16_0" index="0" speed="13.89" length="2.34" shape="105.60,0.00 106.00,-0.80 107.20,-1.60"/>
    </edge>
    <edge id=":B0_8" function="internal">
        <lane id=":B0_8_0" index="0" speed="13.89" length="18.93" shape="88.27,-1.60 107.20,-1.60"/>
    </edge>
    <edge id=":B0_9" function="internal">
        <lane id=":B0_9_0" index="0" speed="13.89" length="7.38" shape="88.27,-1.60 94.10,-0.77 95.38,-0.00"/>
    </edge>
    <edge id=":B0_10" function="internal">
        <lane id=":B0_10_0" index="0" speed="13.89" length="7.71" shape="88.27,-1.60 94.41,-0.91 95.64,-0.00"/>
    </edge>
    <edge id=":B0_11" function="internal">
        <lane id=":B0_11_0" index="0" speed="13.89" length="2.34" shape="88.27,-1.60 89.47,-0.80 89.87,0.00"/>
    </edge>
    <edge id=":B0_17" function="internal">
        <lane id=":B0_17_0" index="0" speed="13.89" length="14.11" shape="95.38,-0.00 98.27,1.73 100.77,5.90 101.60,11.73"/>
    </edge>
    <edge id=":B0_18" function="internal">
        <lane id=":B0_18_0" index="0" speed="13.89" length="11.60" shape="95.64,-0.00 97.21,1.16 96.69,4.60 92.84,9.42"/>
    </edge>
    <edge id=":B0_19" function="internal">
        <lane id=":B0_19_0" index="0" speed="13.89" length="2.34" shape="89.87,0.00 89.47,0.80 88.27,1.60"/>
    </edge>
    <edge id=":B0_12" function="internal">
        <lane id=":B0_12_0" index="0" speed="13.89" length="9.74" shape="90.58,7.16 92.52,4.73 92.78,2.99 91.37,1.95 88.27,1.60"/>
    </edge>
    <edge id=":B0_13" function="internal">
        <lane id=":B0_13_0" index="0" speed="13.89" length="19.24" shape="90.58,7.16 94.90,3.33 99.11,0.59 103.21,-1.05 107.20,-1.60"/>
    </edge>
    <edge id=":B0_14" function="internal">
        <lane id=":B0_14_0" index="0" speed="13.89" length="19.31" shape="90.58,7.16 95.40,3.31 98.84,2.79 100.91,5.59 101.60,11.73"/>
    </edge>
    <edge id=":B0_15" function="internal">
        <lane id=":B0_15_0" index="0" speed="13.89" length="4.67" shape="90.58,7.16 91.99,6.88 92.84,7.16 93.12,8.01 92.84,9.42"/>
    </edge>
    <edge id=":B1_0" function="internal">
        <lane id=":B1_0_0" index="0" speed="13.89" length="9.74" shape="98.40,111.73 98.05,108.63 97.01,107.22 95.27,107.48 92.84,109.42"/>
    </edge>
    <edge id=":B1_1" function="internal">
        <lane id=":B1_1_0" index="0" speed="13.89" length="16.33" shape="98.40,111.73 97.77,107.30 95.87,104.13 92.70,102.23 88.27,101.60"/>
    </edge>
    <edge id=":B1_2" function="internal">
        <lane id=":B1_2_0" index="0" speed="13.89" length="23.45" shape="98.40,111.73 98.40,88.27"/>
    </edge>
    <edge id=":B1_3" function="internal">
        <lane id=":B1_3_0" index="0" speed="13.89" length="9.68" shape="98.40,111.73 98.95,105.76 100.00,102.22"/>
    </edge>
    <edge id=":B1_4" function="internal">
        <lane id=":B1_4_0" index="0" speed="13.89" length="7.38" shape="98.40,111.73 99.23,105.90 100.00,104.62"/>
    </edge>
    <edge id=":B1_5" function="internal">
        <lane id=":B1_5_0" index="0" speed="13.89" length="2.34" shape="98.40,111.73 99.20,110.53 100.00,110.13"/>
    </edge>
    <edge id=":B1_36" function="internal">
        <lane id=":B1_36_0" index="0" speed="13.89" length="13.81" shape="100.00,102.22 100.59,100.24 103.33,95.18 107.16,90.58"/>
    </edge>
    <edge id=":B1_37" function="internal">
        <lane id=":B1_37_0" index="0" speed="13.89" length="14.11" shape="100.00,104.62 101.73,101.73 105.90,99.23 111.73,98.40"/>
    </edge>
    <edge id=":B1_38" function="internal">
        <lane id=":B1_38_0" index="0" speed="13.89" length="2.34" shape="100.00,110.13 100.80,110.53 101.60,111.73"/>
    </edge>
    <edge id=":B1_6" function="internal">
        <lane id=":B1_6_0" index="0" speed="13.89" length="16.33" shape="111.73,101.60 107.30,102.23 104.13,104.13 102.23,107.30 101.60,111.73"/>
    </edge>
    <edge id=":B1_7" function="internal">
        <lane id=":B1_7_0" index="0" speed="13.89" length="20.98" shape="111.73,101.60 106.40,102.09 101.47,103.56 96.95,106.00 92.84,109.42"/>
    </edge>
    <edge id=":B1_8" function="internal">
        <lane id=":B1_8_0" index="0" speed="13.89" length="23.45" shape="111.73,101.60 88.27,101.60"/>
    </edge>
    <edge id=":B1_9" function="internal">
        <lane id=":B1_9_0" index="0" speed="13.89" length="21.49" shape="111.73,101.60 105.90,100.77 101.73,98.27 99.23,94.10 98.40,88.27"/>
    </edge>
    <edge id=":B1_10" function="internal">
        <lane id=":B1_10_0" index="0" speed="13.89" length="19.31" shape="111.73,101.60 105.59,100.91 102.79,98.84 103.31,95.40 107.16,90.58"/>
    </edge>
    <edge id=":B1_11" function="internal">
        <lane id=":B1_11_0" index="0" speed="13.89" length="4.67" shape="111.73,101.60 110.53,100.80 110.13,100.00 110.53,99.20 111.73,98.40"/>
    </edge>
    <edge id=":B1_12" function="internal">
        <lane id=":B1_12_0" index="0" speed="13.89" length="9.74" shape="109.42,92.84 107.48,95.27 107.22,97.01 108.63,98.05 111.73,98.40"/>
    </edge>
    <edge id=":B1_13" function="internal">
        <lane id=":B1_13_0" index="0" speed="13.89" length="20.98" shape="109.42,92.84 106.00,96.95 103.56,101.47 102.09,106.40 101.60,111.73"/>
    </edge>
    <edge id=":B1_14" function="internal">
        <lane id=":B1_14_0" index="0" speed="13.89" length="23.45" shape="109.42,92.84 92.84,109.42"/>
    </edge>
    <edge id=":B1_15" function="internal">
        <lane id=":B1_15_0" index="0" speed="13.89" length="23.49" shape="109.42,92.84 104.82,96.67 99.76,99.41 94.24,101.05 88.27,101.60"/>
    </edge>
    <edge id=":B1_16" function="internal">
        <lane id=":B1_16_0" index="0" speed="13.89" length="19.31" shape="109.42,92.84 104.60,96.69 101.16,97.21 99.09,94.41 98.40,88.27"/>
    </edge>
    <edge id=":B1_17" function="internal">
        <lane id=":B1_17_0" index="0" speed="13.89" length="4.67" shape="109.42,92.84 108.01,93.12 107.16,92.84 106.88,91.99 107.16,90.58"/>
    </edge>
    <edge id=":B1_18" function="internal">
        <lane id=":B1_18_0" index="0" speed="13.89" length="9.74" shape="101.60,88.27 101.95,91.37 102.99,92.78 104.73,92.52 107.16,90.58"/>
    </edge>
    <edge id=":B1_19" function="internal">
        <lane id=":B1_19_0" index="0" speed="13.89" length="16.33" shape="101.60,88.27 102.23,92.70 104.13,95.87 107.30,97.77 111.73,98.40"/>
    </edge>
    <edge id=":B1_20" function="internal">
        <lane id=":B1_20_0" index="0" speed="13.89" length="23.45" shape="101.60,88.27 101.60,111.73"/>
    </edge>
    <edge id=":B1_21" function="internal">
        <lane id=":B1_21_0" index="0" speed="13.89" length="9.68" shape="101.60,88.27 101.05,94.24 100.00,97.78"/>
    </edge>
    <edge id=":B1_22" function="internal">
        <lane id=":B1_22_0" index="0" speed="13.89" length="7.38" shape="101.60,88.27 100.77,94.10 100.00,95.38"/>
    </edge>
    <edge id=":B1_23" function="internal">
        <lane id=":B1_23_0" index="0" speed="13.89" length="2.34" shape="101.60,88.27 100.80,89.47 100.00,89.87"/>
    </edge>
    <edge id=":B1_39" function="internal">
        <lane id=":B1_39_0" index="0" speed="13.89" length="13.81" shape="100.00,97.78 99.41,99.76 96.67,104.82 92.84,109.42"/>
    </edge>
    <edge id=":B1_40" function="internal">
        <lane id=":B1_40_0" index="0" speed="13.89" length="14.11" shape="100.00,95.38 98.27,98.27 94.10,100.77 88.27,101.60"/>
    </edge>
    <edge id=":B1_41" function="internal">
        <lane id=":B1_41_0" index="0" speed="13.89" length="2.34" shape="100.00,89.87 99.20,89.47 98.40,88.27"/>
    </edge>
    <edge id=":B1_24" function="internal">
        <lane id=":B1_24_0" index="0" speed="13.89" length="16.33" shape="88.27,98.40 92.70,97.77 95.87,95.87 97.77,92.70 98.40,88.27"/>
    </edge>
    <edge id=":B1_25" function="internal">
        <lane id=":B1_25_0" index="0" speed="13.89" length="20.98" shape="88.27,98.40 93.60,97.91 98.53,96.44 103.05,94.00 107.16,90.58"/>
    </edge>
    <edge id=":B1_26" function="internal">
        <lane id=":B1_26_0" index="0" speed="13.89" length="23.45" shape="88.27,98.40 111.73,98.40"/>
    </edge>
    <edge id=":B1_27" function="internal">
        <lane id=":B1_27_0" index="0" speed="13.89" length="21.49" shape="88.27,98.40 94.10,99.23 98.27,101.73 100.77,105.90 101.60,111.73"/>
    </edge>
    <edge id=":B1_28" function="internal">
        <lane id=":B1_28_0" index="0" speed="13.89" length="19.31" shape="88.27,98.40 94.41,99.09 97.21,101.16 96.69,104.60 92.84,109.42"/>
    </edge>
    <edge id=":B1_29" function="internal">
        <lane id=":B1_29_0" index="0" speed="13.89" length="4.67" shape="88.27,98.40 89.47,99.20 89.87,100.00 89.47,100.80 88.27,101.60"/>
    </edge>
    <edge id=":B1_30" function="internal">
        <lane id=":B1_30_0" index="0" speed="13.89" length="9.74" shape="90.58,107.16 92.52,104.73 92.78,102.99 91.37,101.95 88.27,101.60"/>
    </edge>
    <edge id=":B1_31" function="internal">
        <lane id=":B1_31_0" index="0" speed="13.89" length="20.98" shape="90.58,107.16 94.00,103.05 96.44,98.53 97.91,93.60 98.40,88.27"/>
    </edge>
    <edge id=":B1_32" function="internal">
        <lane id=":B1_32_0" index="0" speed="13.89" length="23.45" shape="90.58,107.16 107.16,90.58"/>
    </edge>
    <edge id=":B1_33" function="internal">
        <lane id=":B1_33_0" index="0" speed="13.89" length="23.49" shape="90.58,107.16 95.18,103.33 100.24,100.59 105.76,98.95 111.73,98.40"/>
    </edge>
    <edge id=":B1_34" function="internal">
        <lane id=":B1_34_0" index="0" speed="13.89" length="19.31" shape="90.58,107.16 95.40,103.31 98.84,102.79 100.91,105.59 101.60,111.73"/>
    </edge>
    <edge id=":B1_35" function="internal">
        <lane id=":B1_35_0" index="0" speed="13.89" length="4.67" shape="90.58,107.16 91.99,106.88 92.84,107.16 93.12,108.01 92.84,109.42"/>
    </edge>
    <edge id=":B2_0" function="internal">
        <lane id=":B2_0_0" index="0" speed="13.89" length="9.74" shape="98.40,211.73 98.05,208.63 97.01,207.22 95.27,207.48 92.84,209.42"/>
    </edge>
    <edge id=":B2_1" function="internal">
        <lane id=":B2_1_0" index="0" speed="13.89" length="16.33" shape="98.40,211.73 97.77,207.30 95.87,204.13 92.70,202.23 88.27,201.60"/>
    </edge>
    <edge id=":B2_2" function="internal">
        <lane id=":B2_2_0" index="0" speed="13.89" length="23.45" shape="98.40,211.73 98.40,188.27"/>
    </edge>
    <edge id=":B2_3" function="internal">
        <lane id=":B2_3_0" index="0" speed="13.89" length="9.68" shape="98.40,211.73 98.95,205.76 100.00,202.22"/>
    </edge>
    <edge id=":B2_4" function="internal">
        <lane id=":B2_4_0" index="0" speed="13.89" length="7.38" shape="98.40,211.73 99.23,205.90 100.00,204.62"/>
    </edge>
    <edge id=":B2_5" function="internal">
        <lane id=":B2_5_0" index="0" speed="13.89" length="2.34" shape="98.40,211.73 99.20,210.53 100.00,210.13"/>
    </edge>
    <edge id=":B2_36" function="internal">
        <lane id=":B2_36_0" index="0" speed="13.89" length="13.81" shape="100.00,202.22 100.59,200.24 103.33,195.18 107.16,190.58"/>
    </edge>
    <edge id=":B2_37" function="internal">
        <lane id=":B2_37_0" index="0" speed="13.89" length="14.11" shape="100.00,204.62 101.73,201.73 105.90,199.23 111.73,198.40"/>
    </edge>
    <edge id=":B2_38" function="internal">
        <lane id=":B2_38_0" index="0" speed="13.89" length="2.34" shape="100.00,210.13 100.80,210.53 101.60,211.73"/>
    </edge>
    <edge id=":B2_6" function="internal">
        <lane id=":B2_6_0" index="0" speed="13.89" length="16.33" shape="111.73,201.60 107.30,202.23 104.13,204.13 102.23,207.30 101.60,211.73"/>
    </edge>
    <edge id=":B2_7" function="internal">
        <lane id=":B2_7_0" index="0" speed="13.89" length="20.98" shape="111.73,201.60 106.40,202.09 101.47,203.56 96.95,206.00 92.84,209.42"/>
    </edge>
    <edge id=":B2_8" function="internal">
        <lane id=":B2_8_0" index="0" speed="13.89" length="23.45" shape="111.73,201.60 88.27,201.60"/>
    </edge>
    <edge id=":B2_9" function="internal">
        <lane id=":B2_9_0" index="0" speed="13.89" length="21.49" shape="111.73,201.60 105.90,200.77 101.73,198.27 99.23,194.10 98.40,188.27"/>
    </edge>
    <edge id=":B2_10" function="internal">
        <lane id=":B2_10_0" index="0" speed="13.89" length="19.31" shape="111.73,201.60 105.59,200.91 102.79,198.84 103.31,195.40 107.16,190.58"/>
    </edge>
    <edge id=":B2_11" function="internal">
        <lane id=":B2_11_0" index="0" speed="13.89" length="4.67" shape="111.73,201.60 110.53,200.80 110.13,200.00 110.53,199.20 111.73,198.40"/>
    </edge>
    <edge id=":B2_12" function="internal">
        <lane id=":B2_12_0" index="0" speed="13.89" length="9.74" shape="109.42,192.84 107.48,195.27 107.22,197.01 108.63,198.05 111.73,198.40"/>
    </edge>
    <edge id=":B2_13" function="internal">
        <lane id=":B2_13_0" index="0" speed="13.89" length="20.98" shape="109.42,192.84 106.00,196.95 103.56,201.47 102.09,206.40 101.60,211.73"/>
    </edge>
    <edge id=":B2_14" function="internal">
        <lane id=":B2_14_0" index="0" speed="13.89" length="23.45" shape="109.42,192.84 92.84,209.42"/>
    </edge>
    <edge id=":B2_15" function="internal">
        <lane id=":B2_15_0" index="0" speed="13.89" length="23.49" shape="109.42,192.84 104.82,196.67 99.76,199.41 94.24,201.05 88.27,201.60"/>
    </edge>
    <edge id=":B2_16" function="internal">
        <lane id=":B2_16_0" index="0" speed="13.89" length="19.31" shape="109.42,192.84 104.60,196.69 101.16,197.21 99.09,194.41 98.40,188.27"/>
    </edge>
    <edge id=":B2_17" function="internal">
        <lane id=":B2_17_0" index="0" speed="13.89" length="4.67" shape="109.42,192.84 108.01,193.12 107.16,192.84 106.88,191.99 107.16,190.58"/>
    </edge>
    <edge id=":B2_18" function="internal">